<?xml version='1.0' encoding='utf-8'?>
<additional>
  <edgeData id="edge_metrics" file="edge-data.xml" begin="0" end="900" excludeEmpty="false" />
</additional>