<?xml version='1.0' encoding='utf-8'?>
<routes>
  <vType id="passenger" vClass="passenger" accel="2.6" decel="4.5" sigma="0.5" length="5.0" minGap="2.5" maxSpeed="22.22" />
  <route id="corridor_route" edges="edge_001 edge_002 edge_003 edge_004 edge_005 edge_006 edge_007 edge_008 edge_009 edge_010 edge_011 edge_012 edge_013 edge_014 edge_015 edge_016 edge_017 edge_018 edge_019 edge_020 edge_021 edge_022 edge_023 edge_024 edge_025 edge_026 edge_027 edge_028 edge_029 edge_030 edge_031 edge_032 edge_033 edge_034" />
  <vehicle id="baseline_veh_0000" type="passenger" route="corridor_route" depart="0.00" departLane="best" departSpeed="max" />
  <vehicle id="baseline_veh_0001" type="passenger" route="corridor_route" depart="7.50" departLane="best" departSpeed="max" />
  <vehicle id="baseline_veh_0002" type="passenger" route="corridor_route" depart="15.00" departLane="best" departSpeed="max" />
  <vehicle id="baseline_veh_0003" type="passenger" route="corridor_route" depart="22.50" departLane="best" departSpeed="max" />
  <vehicle id="baseline_veh_0004" type="passenger" route="corridor_route" depart="30.00" departLane="best" departSpeed="max" />
  <vehicle id="baseline_veh_0005" type="passenger" route="corridor_route" depart="37.50" departLane="best" departSpeed="max" />
  <vehicle id="baseline_veh_0006" type="passenger" route="corridor_route" depart="45.00" departLane="best" departSpeed="max" />
  <vehicle id="baseline_veh_0007" type="passenger" route="corridor_route" depart="52.50" departLane="best" departSpeed="max" />
  <vehicle id="baseline_veh_0008" type="passenger" route="corridor_route" depart="60.00" departLane="best" departSpeed="max" />
  <vehicle id="baseline_veh_0009" type="passenger" route="corridor_route" depart="67.50" departLane="best" departSpeed="max" />
  <vehicle id="baseline_veh_0010" type="passenger" route="corridor_route" depart="75.00" departLane="best" departSpeed="max" />
  <vehicle id="baseline_veh_0011" type="passenger" route="corridor_route" depart="82.50" departLane="best" departSpeed="max" />
  <vehicle id="baseline_veh_0012" type="passenger" route="corridor_route" depart="90.00" departLane="best" departSpeed="max" />
  <vehicle id="baseline_veh_0013" type="passenger" route="corridor_route" depart="97.50" departLane="best" departSpeed="max" />
  <vehicle id="baseline_veh_0014" type="passenger" route="corridor_route" depart="105.00" departLane="best" departSpeed="max" />
  <vehicle id="baseline_veh_0015" type="passenger" route="corridor_route" depart="112.50" departLane="best" departSpeed="max" />
  <vehicle id="baseline_veh_0016" type="passenger" route="corridor_route" depart="120.00" departLane="best" departSpeed="max" />
  <vehicle id="baseline_veh_0017" type="passenger" route="corridor_route" depart="127.50" departLane="best" departSpeed="max" />
  <vehicle id="baseline_veh_0018" type="passenger" route="corridor_route" depart="135.00" departLane="best" departSpeed="max" />
  <vehicle id="baseline_veh_0019" type="passenger" route="corridor_route" depart="142.50" departLane="best" departSpeed="max" />
  <vehicle id="baseline_veh_0020" type="passenger" route="corridor_route" depart="150.00" departLane="best" departSpeed="max" />
  <vehicle id="baseline_veh_0021" type="passenger" route="corridor_route" depart="157.50" departLane="best" departSpeed="max" />
  <vehicle id="baseline_veh_0022" type="passenger" route="corridor_route" depart="165.00" departLane="best" departSpeed="max" />
  <vehicle id="baseline_veh_0023" type="passenger" route="corridor_route" depart="172.50" departLane="best" departSpeed="max" />
  <vehicle id="baseline_veh_0024" type="passenger" route="corridor_route" depart="180.00" departLane="best" departSpeed="max" />
  <vehicle id="baseline_veh_0025" type="passenger" route="corridor_route" depart="187.50" departLane="best" departSpeed="max" />
  <vehicle id="baseline_veh_0026" type="passenger" route="corridor_route" depart="195.00" departLane="best" departSpeed="max" />
  <vehicle id="baseline_veh_0027" type="passenger" route="corridor_route" depart="202.50" departLane="best" departSpeed="max" />
  <vehicle id="baseline_veh_0028" type="passenger" route="corridor_route" depart="210.00" departLane="best" departSpeed="max" />
  <vehicle id="baseline_veh_0029" type="passenger" route="corridor_route" depart="217.50" departLane="best" departSpeed="max" />
  <vehicle id="baseline_veh_0030" type="passenger" route="corridor_route" depart="225.00" departLane="best" departSpeed="max" />
  <vehicle id="baseline_veh_0031" type="passenger" route="corridor_route" depart="232.50" departLane="best" departSpeed="max" />
  <vehicle id="baseline_veh_0032" type="passenger" route="corridor_route" depart="240.00" departLane="best" departSpeed="max" />
  <vehicle id="baseline_veh_0033" type="passenger" route="corridor_route" depart="247.50" departLane="best" departSpeed="max" />
  <vehicle id="baseline_veh_0034" type="passenger" route="corridor_route" depart="255.00" departLane="best" departSpeed="max" />
  <vehicle id="baseline_veh_0035" type="passenger" route="corridor_route" depart="262.50" departLane="best" departSpeed="max" />
  <vehicle id="baseline_veh_0036" type="passenger" route="corridor_route" depart="270.00" departLane="best" departSpeed="max" />
  <vehicle id="baseline_veh_0037" type="passenger" route="corridor_route" depart="277.50" departLane="best" departSpeed="max" />
  <vehicle id="baseline_veh_0038" type="passenger" route="corridor_route" depart="285.00" departLane="best" departSpeed="max" />
  <vehicle id="baseline_veh_0039" type="passenger" route="corridor_route" depart="292.50" departLane="best" departSpeed="max" />
  <vehicle id="baseline_veh_0040" type="passenger" route="corridor_route" depart="300.00" departLane="best" departSpeed="max" />
  <vehicle id="baseline_veh_0041" type="passenger" route="corridor_route" depart="307.50" departLane="best" departSpeed="max" />
  <vehicle id="baseline_veh_0042" type="passenger" route="corridor_route" depart="315.00" departLane="best" departSpeed="max" />
  <vehicle id="baseline_veh_0043" type="passenger" route="corridor_route" depart="322.50" departLane="best" departSpeed="max" />
  <vehicle id="baseline_veh_0044" type="passenger" route="corridor_route" depart="330.00" departLane="best" departSpeed="max" />
  <vehicle id="baseline_veh_0045" type="passenger" route="corridor_route" depart="337.50" departLane="best" departSpeed="max" />
  <vehicle id="baseline_veh_0046" type="passenger" route="corridor_route" depart="345.00" departLane="best" departSpeed="max" />
  <vehicle id="baseline_veh_0047" type="passenger" route="corridor_route" depart="352.50" departLane="best" departSpeed="max" />
  <vehicle id="baseline_veh_0048" type="passenger" route="corridor_route" depart="360.00" departLane="best" departSpeed="max" />
  <vehicle id="baseline_veh_0049" type="passenger" route="corridor_route" depart="367.50" departLane="best" departSpeed="max" />
  <vehicle id="baseline_veh_0050" type="passenger" route="corridor_route" depart="375.00" departLane="best" departSpeed="max" />
  <vehicle id="baseline_veh_0051" type="passenger" route="corridor_route" depart="382.50" departLane="best" departSpeed="max" />
  <vehicle id="baseline_veh_0052" type="passenger" route="corridor_route" depart="390.00" departLane="best" departSpeed="max" />
  <vehicle id="baseline_veh_0053" type="passenger" route="corridor_route" depart="397.50" departLane="best" departSpeed="max" />
  <vehicle id="baseline_veh_0054" type="passenger" route="corridor_route" depart="405.00" departLane="best" departSpeed="max" />
  <vehicle id="baseline_veh_0055" type="passenger" route="corridor_route" depart="412.50" departLane="best" departSpeed="max" />
  <vehicle id="baseline_veh_0056" type="passenger" route="corridor_route" depart="420.00" departLane="best" departSpeed="max" />
  <vehicle id="baseline_veh_0057" type="passenger" route="corridor_route" depart="427.50" departLane="best" departSpeed="max" />
  <vehicle id="baseline_veh_0058" type="passenger" route="corridor_route" depart="435.00" departLane="best" departSpeed="max" />
  <vehicle id="baseline_veh_0059" type="passenger" route="corridor_route" depart="442.50" departLane="best" departSpeed="max" />
  <vehicle id="baseline_veh_0060" type="passenger" route="corridor_route" depart="450.00" departLane="best" departSpeed="max" />
  <vehicle id="baseline_veh_0061" type="passenger" route="corridor_route" depart="457.50" departLane="best" departSpeed="max" />
  <vehicle id="baseline_veh_0062" type="passenger" route="corridor_route" depart="465.00" departLane="best" departSpeed="max" />
  <vehicle id="baseline_veh_0063" type="passenger" route="corridor_route" depart="472.50" departLane="best" departSpeed="max" />
  <vehicle id="baseline_veh_0064" type="passenger" route="corridor_route" depart="480.00" departLane="best" departSpeed="max" />
  <vehicle id="baseline_veh_0065" type="passenger" route="corridor_route" depart="487.50" departLane="best" departSpeed="max" />
  <vehicle id="baseline_veh_0066" type="passenger" route="corridor_route" depart="495.00" departLane="best" departSpeed="max" />
  <vehicle id="baseline_veh_0067" type="passenger" route="corridor_route" depart="502.50" departLane="best" departSpeed="max" />
  <vehicle id="baseline_veh_0068" type="passenger" route="corridor_route" depart="510.00" departLane="best" departSpeed="max" />
  <vehicle id="baseline_veh_0069" type="passenger" route="corridor_route" depart="517.50" departLane="best" departSpeed="max" />
  <vehicle id="baseline_veh_0070" type="passenger" route="corridor_route" depart="525.00" departLane="best" departSpeed="max" />
  <vehicle id="baseline_veh_0071" type="passenger" route="corridor_route" depart="532.50" departLane="best" departSpeed="max" />
  <vehicle id="baseline_veh_0072" type="passenger" route="corridor_route" depart="540.00" departLane="best" departSpeed="max" />
  <vehicle id="baseline_veh_0073" type="passenger" route="corridor_route" depart="547.50" departLane="best" departSpeed="max" />
  <vehicle id="baseline_veh_0074" type="passenger" route="corridor_route" depart="555.00" departLane="best" departSpeed="max" />
  <vehicle id="baseline_veh_0075" type="passenger" route="corridor_route" depart="562.50" departLane="best" departSpeed="max" />
  <vehicle id="baseline_veh_0076" type="passenger" route="corridor_route" depart="570.00" departLane="best" departSpeed="max" />
  <vehicle id="baseline_veh_0077" type="passenger" route="corridor_route" depart="577.50" departLane="best" departSpeed="max" />
  <vehicle id="baseline_veh_0078" type="passenger" route="corridor_route" depart="585.00" departLane="best" departSpeed="max" />
  <vehicle id="baseline_veh_0079" type="passenger" route="corridor_route" depart="592.50" departLane="best" departSpeed="max" />
  <vehicle id="baseline_veh_0080" type="passenger" route="corridor_route" depart="600.00" departLane="best" departSpeed="max" />
  <vehicle id="baseline_veh_0081" type="passenger" route="corridor_route" depart="607.50" departLane="best" departSpeed="max" />
  <vehicle id="baseline_veh_0082" type="passenger" route="corridor_route" depart="615.00" departLane="best" departSpeed="max" />
  <vehicle id="baseline_veh_0083" type="passenger" route="corridor_route" depart="622.50" departLane="best" departSpeed="max" />
  <vehicle id="baseline_veh_0084" type="passenger" route="corridor_route" depart="630.00" departLane="best" departSpeed="max" />
  <vehicle id="baseline_veh_0085" type="passenger" route="corridor_route" depart="637.50" departLane="best" departSpeed="max" />
  <vehicle id="baseline_veh_0086" type="passenger" route="corridor_route" depart="645.00" departLane="best" departSpeed="max" />
  <vehicle id="baseline_veh_0087" type="passenger" route="corridor_route" depart="652.50" departLane="best" departSpeed="max" />
  <vehicle id="baseline_veh_0088" type="passenger" route="corridor_route" depart="660.00" departLane="best" departSpeed="max" />
  <vehicle id="baseline_veh_0089" type="passenger" route="corridor_route" depart="667.50" departLane="best" departSpeed="max" />
  <vehicle id="baseline_veh_0090" type="passenger" route="corridor_route" depart="675.00" departLane="best" departSpeed="max" />
  <vehicle id="baseline_veh_0091" type="passenger" route="corridor_route" depart="682.50" departLane="best" departSpeed="max" />
  <vehicle id="baseline_veh_0092" type="passenger" route="corridor_route" depart="690.00" departLane="best" departSpeed="max" />
  <vehicle id="baseline_veh_0093" type="passenger" route="corridor_route" depart="697.50" departLane="best" departSpeed="max" />
  <vehicle id="baseline_veh_0094" type="passenger" route="corridor_route" depart="705.00" departLane="best" departSpeed="max" />
  <vehicle id="baseline_veh_0095" type="passenger" route="corridor_route" depart="712.50" departLane="best" departSpeed="max" />
  <vehicle id="baseline_veh_0096" type="passenger" route="corridor_route" depart="720.00" departLane="best" departSpeed="max" />
  <vehicle id="baseline_veh_0097" type="passenger" route="corridor_route" depart="727.50" departLane="best" departSpeed="max" />
  <vehicle id="baseline_veh_0098" type="passenger" route="corridor_route" depart="735.00" departLane="best" departSpeed="max" />
  <vehicle id="baseline_veh_0099" type="passenger" route="corridor_route" depart="742.50" departLane="best" departSpeed="max" />
  <vehicle id="baseline_veh_0100" type="passenger" route="corridor_route" depart="750.00" departLane="best" departSpeed="max" />
  <vehicle id="baseline_veh_0101" type="passenger" route="corridor_route" depart="757.50" departLane="best" departSpeed="max" />
  <vehicle id="baseline_veh_0102" type="passenger" route="corridor_route" depart="765.00" departLane="best" departSpeed="max" />
  <vehicle id="baseline_veh_0103" type="passenger" route="corridor_route" depart="772.50" departLane="best" departSpeed="max" />
  <vehicle id="baseline_veh_0104" type="passenger" route="corridor_route" depart="780.00" departLane="best" departSpeed="max" />
  <vehicle id="baseline_veh_0105" type="passenger" route="corridor_route" depart="787.50" departLane="best" departSpeed="max" />
  <vehicle id="baseline_veh_0106" type="passenger" route="corridor_route" depart="795.00" departLane="best" departSpeed="max" />
  <vehicle id="baseline_veh_0107" type="passenger" route="corridor_route" depart="802.50" departLane="best" departSpeed="max" />
  <vehicle id="baseline_veh_0108" type="passenger" route="corridor_route" depart="810.00" departLane="best" departSpeed="max" />
  <vehicle id="baseline_veh_0109" type="passenger" route="corridor_route" depart="817.50" departLane="best" departSpeed="max" />
  <vehicle id="baseline_veh_0110" type="passenger" route="corridor_route" depart="825.00" departLane="best" departSpeed="max" />
  <vehicle id="baseline_veh_0111" type="passenger" route="corridor_route" depart="832.50" departLane="best" departSpeed="max" />
  <vehicle id="baseline_veh_0112" type="passenger" route="corridor_route" depart="840.00" departLane="best" departSpeed="max" />
  <vehicle id="baseline_veh_0113" type="passenger" route="corridor_route" depart="847.50" departLane="best" departSpeed="max" />
  <vehicle id="baseline_veh_0114" type="passenger" route="corridor_route" depart="855.00" departLane="best" departSpeed="max" />
  <vehicle id="baseline_veh_0115" type="passenger" route="corridor_route" depart="862.50" departLane="best" departSpeed="max" />
  <vehicle id="baseline_veh_0116" type="passenger" route="corridor_route" depart="870.00" departLane="best" departSpeed="max" />
  <vehicle id="baseline_veh_0117" type="passenger" route="corridor_route" depart="877.50" departLane="best" departSpeed="max" />
  <vehicle id="baseline_veh_0118" type="passenger" route="corridor_route" depart="885.00" departLane="best" departSpeed="max" />
  <vehicle id="baseline_veh_0119" type="passenger" route="corridor_route" depart="892.50" departLane="best" departSpeed="max" />
</routes>