<?xml version="1.0" encoding="UTF-8"?>

<!-- generated on 2026-04-17 17:08:56 by Eclipse SUMO netconvert Version 1.18.0
<configuration xmlns:xsi="http://www.w3.org/2001/XMLSchema-instance" xsi:noNamespaceSchemaLocation="http://sumo.dlr.de/xsd/netconvertConfiguration.xsd">

    <input>
        <node-files value="/home/sherif453/code/alex-mobility/data/exports/scenarios/sumo-scenarios-20260417T150843Z/lane-reduction/network.nod.xml"/>
        <edge-files value="/home/sherif453/code/alex-mobility/data/exports/scenarios/sumo-scenarios-20260417T150843Z/lane-reduction/network.edg.xml"/>
    </input>

    <output>
        <output-file value="/home/sherif453/code/alex-mobility/data/exports/scenarios/sumo-scenarios-20260417T150843Z/lane-reduction/network.net.xml"/>
    </output>

</configuration>
-->

<net version="1.16" junctionCornerDetail="5" limitTurnSpeed="5.50" xmlns:xsi="http://www.w3.org/2001/XMLSchema-instance" xsi:noNamespaceSchemaLocation="http://sumo.dlr.de/xsd/net_file.xsd">

    <location netOffset="7342.68,5478.39" convBoundary="0.00,0.00,7342.68,5478.39" origBoundary="-7342.68,-5478.39,0.00,0.00" projParameter="!"/>

    <edge id=":node_002_0" function="internal">
        <lane id=":node_002_0_0" index="0" speed="8.33" length="0.10" shape="7188.70,5184.10 7188.70,5184.10"/>
        <lane id=":node_002_0_1" index="1" speed="8.33" length="0.10" shape="7191.55,5182.66 7191.55,5182.66"/>
    </edge>
    <edge id=":node_003_0" function="internal">
        <lane id=":node_003_0_0" index="0" speed="8.33" length="0.30" shape="7039.05,4887.80 7038.92,4887.53"/>
        <lane id=":node_003_0_1" index="1" speed="8.33" length="0.30" shape="7041.91,4886.36 7041.77,4886.09"/>
    </edge>
    <edge id=":node_004_0" function="internal">
        <lane id=":node_004_0_0" index="0" speed="8.33" length="0.30" shape="6889.26,4591.47 6889.13,4591.20"/>
        <lane id=":node_004_0_1" index="1" speed="8.33" length="0.30" shape="6892.12,4590.03 6891.98,4589.76"/>
    </edge>
    <edge id=":node_005_0" function="internal">
        <lane id=":node_005_0_0" index="0" speed="8.33" length="0.10" shape="6739.49,4294.88 6739.49,4294.88"/>
        <lane id=":node_005_0_1" index="1" speed="8.33" length="0.10" shape="6742.34,4293.44 6742.34,4293.44"/>
    </edge>
    <edge id=":node_006_0" function="internal">
        <lane id=":node_006_0_0" index="0" speed="4.37" length="2.16" shape="6590.78,4000.42 6590.63,4000.14 6590.50,3999.97 6590.32,3999.84 6590.03,3999.69"/>
        <lane id=":node_006_0_1" index="1" speed="6.96" length="2.16" shape="6593.64,3998.98 6593.19,3998.14 6592.78,3997.61 6592.24,3997.22 6591.38,3996.79"/>
    </edge>
    <edge id=":node_007_0" function="internal">
        <lane id=":node_007_0_0" index="0" speed="4.33" length="2.24" shape="6372.76,3898.40 6372.46,3898.27 6372.23,3898.22 6372.00,3898.23 6371.68,3898.30"/>
        <lane id=":node_007_0_1" index="1" speed="6.90" length="2.24" shape="6374.11,3895.50 6373.20,3895.11 6372.53,3894.94 6371.84,3894.98 6370.87,3895.21"/>
    </edge>
    <edge id=":node_008_0" function="internal">
        <lane id=":node_008_0_0" index="0" speed="8.33" length="0.30" shape="6086.73,3972.39 6086.44,3972.46"/>
        <lane id=":node_008_0_1" index="1" speed="8.33" length="0.30" shape="6085.93,3969.29 6085.64,3969.37"/>
    </edge>
    <edge id=":node_009_0" function="internal">
        <lane id=":node_009_0_0" index="0" speed="8.33" length="0.30" shape="5799.32,4046.97 5799.03,4047.04"/>
        <lane id=":node_009_0_1" index="1" speed="8.33" length="0.30" shape="5798.52,4043.87 5798.23,4043.95"/>
    </edge>
    <edge id=":node_010_0" function="internal">
        <lane id=":node_010_0_0" index="0" speed="8.33" length="0.30" shape="5512.00,4121.67 5511.71,4121.74"/>
        <lane id=":node_010_0_1" index="1" speed="8.33" length="0.30" shape="5511.20,4118.57 5510.91,4118.65"/>
    </edge>
    <edge id=":node_011_0" function="internal">
        <lane id=":node_011_0_0" index="0" speed="6.04" length="5.98" shape="5226.01,4192.60 5224.47,4192.81 5223.05,4192.62 5221.74,4192.03 5220.55,4191.04"/>
    </edge>
    <edge id=":node_012_0" function="internal">
        <lane id=":node_012_0_0" index="0" speed="3.75" length="0.31" shape="5024.22,3984.69 5024.16,3984.63 5024.12,3984.58 5024.08,3984.53 5024.03,3984.45"/>
    </edge>
    <edge id=":node_013_0" function="internal">
        <lane id=":node_013_0_0" index="0" speed="6.04" length="8.40" shape="4849.64,3712.30 4847.89,3710.50 4846.14,3709.80 4844.38,3709.10 4842.63,3707.29"/>
        <lane id=":node_013_0_1" index="1" speed="6.04" length="8.40" shape="4849.64,3712.30 4845.32,3705.57"/>
    </edge>
    <edge id=":node_014_0" function="internal">
        <lane id=":node_014_0_0" index="0" speed="8.33" length="0.10" shape="4668.16,3435.25 4668.16,3435.25"/>
        <lane id=":node_014_0_1" index="1" speed="8.33" length="0.10" shape="4670.85,3433.52 4670.85,3433.52"/>
    </edge>
    <edge id=":node_015_0" function="internal">
        <lane id=":node_015_0_0" index="0" speed="8.33" length="0.10" shape="4491.62,3159.85 4491.62,3159.85"/>
        <lane id=":node_015_0_1" index="1" speed="8.33" length="0.10" shape="4494.31,3158.12 4494.31,3158.12"/>
    </edge>
    <edge id=":node_016_0" function="internal">
        <lane id=":node_016_0_0" index="0" speed="8.33" length="0.30" shape="4315.06,2884.57 4314.90,2884.31"/>
        <lane id=":node_016_0_1" index="1" speed="8.33" length="0.30" shape="4317.75,2882.84 4317.59,2882.59"/>
    </edge>
    <edge id=":node_017_0" function="internal">
        <lane id=":node_017_0_0" index="0" speed="8.33" length="0.30" shape="4138.52,2609.05 4138.36,2608.79"/>
        <lane id=":node_017_0_1" index="1" speed="8.33" length="0.30" shape="4141.21,2607.32 4141.05,2607.07"/>
    </edge>
    <edge id=":node_018_0" function="internal">
        <lane id=":node_018_0_0" index="0" speed="8.33" length="1.69" shape="3962.73,2334.96 3962.59,2334.76 3962.47,2334.63 3962.33,2334.53 3962.11,2334.41"/>
        <lane id=":node_018_0_1" index="1" speed="7.59" length="1.69" shape="3965.42,2333.24 3965.00,2332.61 3964.66,2332.22 3964.24,2331.92 3963.58,2331.56"/>
    </edge>
    <edge id=":node_019_0" function="internal">
        <lane id=":node_019_0_0" index="0" speed="8.33" length="0.75" shape="3709.45,2203.85 3709.35,2203.80 3709.28,2203.77 3709.21,2203.75 3709.10,2203.72"/>
        <lane id=":node_019_0_1" index="1" speed="8.33" length="0.75" shape="3710.92,2201.01 3710.62,2200.86 3710.41,2200.76 3710.19,2200.69 3709.86,2200.61"/>
    </edge>
    <edge id=":node_020_0" function="internal">
        <lane id=":node_020_0_0" index="0" speed="8.33" length="0.30" shape="3421.90,2132.91 3421.61,2132.83"/>
        <lane id=":node_020_0_1" index="1" speed="8.33" length="0.30" shape="3422.66,2129.80 3422.37,2129.73"/>
    </edge>
    <edge id=":node_021_0" function="internal">
        <lane id=":node_021_0_0" index="0" speed="8.33" length="0.25" shape="3133.76,2061.96 3133.40,2061.86"/>
        <lane id=":node_021_0_1" index="1" speed="8.33" length="0.25" shape="3134.53,2058.85 3134.41,2058.82"/>
    </edge>
    <edge id=":node_022_0" function="internal">
        <lane id=":node_022_0_0" index="0" speed="8.33" length="0.26" shape="2850.84,1968.35 2850.47,1968.21"/>
        <lane id=":node_022_0_1" index="1" speed="8.33" length="0.26" shape="2851.85,1965.31 2851.72,1965.26"/>
    </edge>
    <edge id=":node_023_0" function="internal">
        <lane id=":node_023_0_0" index="0" speed="8.33" length="0.30" shape="2573.95,1850.72 2573.68,1850.60"/>
        <lane id=":node_023_0_1" index="1" speed="8.33" length="0.30" shape="2575.20,1847.77 2574.93,1847.65"/>
    </edge>
    <edge id=":node_024_0" function="internal">
        <lane id=":node_024_0_0" index="0" speed="8.33" length="0.30" shape="2297.29,1733.28 2297.02,1733.16"/>
        <lane id=":node_024_0_1" index="1" speed="8.33" length="0.30" shape="2298.54,1730.33 2298.27,1730.21"/>
    </edge>
    <edge id=":node_025_0" function="internal">
        <lane id=":node_025_0_0" index="0" speed="8.33" length="0.50" shape="2020.49,1615.66 2020.29,1615.57 2020.15,1615.51 2020.02,1615.43 2019.83,1615.31"/>
        <lane id=":node_025_0_1" index="1" speed="8.33" length="0.50" shape="2021.74,1612.71 2021.68,1612.68 2021.63,1612.66 2021.59,1612.64 2021.52,1612.60"/>
    </edge>
    <edge id=":node_026_0" function="internal">
        <lane id=":node_026_0_0" index="0" speed="6.73" length="2.49" shape="1774.95,1462.81 1774.04,1462.21 1773.49,1461.67 1773.14,1460.98 1772.84,1459.93"/>
        <lane id=":node_026_0_1" index="1" speed="4.25" length="2.49" shape="1776.64,1460.10 1776.34,1459.90 1776.16,1459.72 1776.04,1459.49 1775.94,1459.14"/>
    </edge>
    <edge id=":node_027_0" function="internal">
        <lane id=":node_027_0_0" index="0" speed="8.33" length="0.10" shape="1688.43,1130.08 1688.43,1130.08"/>
        <lane id=":node_027_0_1" index="1" speed="8.33" length="0.10" shape="1691.53,1129.29 1691.53,1129.29"/>
    </edge>
    <edge id=":node_028_0" function="internal">
        <lane id=":node_028_0_0" index="0" speed="8.33" length="0.10" shape="1604.01,800.24 1604.01,800.24"/>
        <lane id=":node_028_0_1" index="1" speed="8.33" length="0.10" shape="1607.11,799.45 1607.11,799.45"/>
    </edge>
    <edge id=":node_029_0" function="internal">
        <lane id=":node_029_0_0" index="0" speed="8.33" length="0.10" shape="1519.60,470.40 1519.60,470.40"/>
        <lane id=":node_029_0_1" index="1" speed="8.33" length="0.10" shape="1522.70,469.61 1522.70,469.61"/>
    </edge>
    <edge id=":node_030_0" function="internal">
        <lane id=":node_030_0_0" index="0" speed="4.00" length="1.74" shape="1436.14,144.30 1435.97,143.88 1435.72,143.55 1435.38,143.30 1434.96,143.14"/>
        <lane id=":node_030_0_1" index="1" speed="6.27" length="5.23" shape="1439.24,143.51 1438.75,142.24 1437.99,141.24 1436.98,140.50 1435.70,140.03"/>
    </edge>
    <edge id=":node_031_0" function="internal">
        <lane id=":node_031_0_0" index="0" speed="8.33" length="0.54" shape="1174.95,81.15 1174.88,81.14 1174.82,81.13 1174.77,81.12 1174.69,81.11"/>
        <lane id=":node_031_0_1" index="1" speed="8.33" length="0.54" shape="1175.70,78.04 1175.46,77.99 1175.30,77.96 1175.14,77.94 1174.90,77.92"/>
    </edge>
    <edge id=":node_032_0" function="internal">
        <lane id=":node_032_0_0" index="0" speed="8.33" length="0.30" shape="881.50,62.02 881.20,62.00"/>
        <lane id=":node_032_0_1" index="1" speed="8.33" length="0.30" shape="881.71,58.83 881.41,58.81"/>
    </edge>
    <edge id=":node_033_0" function="internal">
        <lane id=":node_033_0_0" index="0" speed="8.33" length="0.30" shape="587.61,42.98 587.31,42.96"/>
        <lane id=":node_033_0_1" index="1" speed="8.33" length="0.30" shape="587.82,39.79 587.52,39.77"/>
    </edge>
    <edge id=":node_034_0" function="internal">
        <lane id=":node_034_0_0" index="0" speed="8.33" length="0.30" shape="293.72,23.83 293.42,23.81"/>
        <lane id=":node_034_0_1" index="1" speed="8.33" length="0.30" shape="293.93,20.64 293.63,20.62"/>
    </edge>

    <edge id="edge_001" from="node_001" to="node_002" priority="1" length="331.73">
        <lane id="edge_001_0" index="0" speed="8.33" length="331.73" shape="7338.40,5480.55 7188.70,5184.10"/>
        <lane id="edge_001_1" index="1" speed="8.33" length="331.73" shape="7341.25,5479.11 7191.55,5182.66"/>
    </edge>
    <edge id="edge_002" from="node_002" to="node_003" priority="1" length="331.73">
        <lane id="edge_002_0" index="0" speed="8.33" length="331.73" shape="7188.70,5184.10 7039.05,4887.80"/>
        <lane id="edge_002_1" index="1" speed="8.33" length="331.73" shape="7191.55,5182.66 7041.91,4886.36"/>
    </edge>
    <edge id="edge_003" from="node_003" to="node_004" priority="1" length="331.68">
        <lane id="edge_003_0" index="0" speed="8.33" length="331.68" shape="7038.92,4887.53 6889.26,4591.47"/>
        <lane id="edge_003_1" index="1" speed="8.33" length="331.68" shape="7041.77,4886.09 6892.12,4590.03"/>
    </edge>
    <edge id="edge_004" from="node_004" to="node_005" priority="1" length="331.73">
        <lane id="edge_004_0" index="0" speed="8.33" length="331.73" shape="6889.13,4591.20 6739.49,4294.88"/>
        <lane id="edge_004_1" index="1" speed="8.33" length="331.73" shape="6891.98,4589.76 6742.34,4293.44"/>
    </edge>
    <edge id="edge_005" from="node_005" to="node_006" priority="1" length="331.74">
        <lane id="edge_005_0" index="0" speed="8.33" length="331.74" shape="6739.49,4294.88 6590.78,4000.42"/>
        <lane id="edge_005_1" index="1" speed="8.33" length="331.74" shape="6742.34,4293.44 6593.64,3998.98"/>
    </edge>
    <edge id="edge_006" from="node_006" to="node_007" priority="1" length="243.99">
        <lane id="edge_006_0" index="0" speed="8.33" length="243.99" shape="6590.03,3999.69 6372.76,3898.40"/>
        <lane id="edge_006_1" index="1" speed="8.33" length="243.99" shape="6591.38,3996.79 6374.11,3895.50"/>
    </edge>
    <edge id="edge_007" from="node_007" to="node_008" priority="1" length="296.58">
        <lane id="edge_007_0" index="0" speed="8.33" length="296.58" shape="6371.68,3898.30 6086.73,3972.39"/>
        <lane id="edge_007_1" index="1" speed="8.33" length="296.58" shape="6370.87,3895.21 6085.93,3969.29"/>
    </edge>
    <edge id="edge_008" from="node_008" to="node_009" priority="1" length="296.64">
        <lane id="edge_008_0" index="0" speed="8.33" length="296.64" shape="6086.44,3972.46 5799.32,4046.97"/>
        <lane id="edge_008_1" index="1" speed="8.33" length="296.64" shape="6085.64,3969.37 5798.52,4043.87"/>
    </edge>
    <edge id="edge_009" from="node_009" to="node_010" priority="1" length="296.57">
        <lane id="edge_009_0" index="0" speed="8.33" length="296.57" shape="5799.03,4047.04 5512.00,4121.67"/>
        <lane id="edge_009_1" index="1" speed="8.33" length="296.57" shape="5798.23,4043.95 5511.20,4118.57"/>
    </edge>
    <edge id="edge_010" from="node_010" to="node_011" priority="1" length="296.54">
        <lane id="edge_010_0" index="0" speed="8.33" length="296.54" shape="5511.71,4121.74 5226.82,4195.69"/>
        <lane id="edge_010_1" index="1" speed="8.33" length="296.54" shape="5510.91,4118.65 5226.01,4192.60"/>
    </edge>
    <edge id="edge_011" from="node_011" to="node_012" priority="1" length="286.88">
        <lane id="edge_011_0" index="0" speed="3.75" length="286.88" shape="5220.55,4191.04 5024.22,3984.69"/>
    </edge>
    <edge id="edge_012" from="node_012" to="node_013" priority="1" length="326.87">
        <lane id="edge_012_0" index="0" speed="3.75" length="326.87" shape="5024.03,3984.45 4849.64,3712.30"/>
    </edge>
    <edge id="edge_013" from="node_013" to="node_014" priority="1" length="326.83">
        <lane id="edge_013_0" index="0" speed="8.33" length="326.83" shape="4842.63,3707.29 4668.16,3435.25"/>
        <lane id="edge_013_1" index="1" speed="8.33" length="326.83" shape="4845.32,3705.57 4670.85,3433.52"/>
    </edge>
    <edge id="edge_014" from="node_014" to="node_015" priority="1" length="326.78">
        <lane id="edge_014_0" index="0" speed="8.33" length="326.78" shape="4668.16,3435.25 4491.62,3159.85"/>
        <lane id="edge_014_1" index="1" speed="8.33" length="326.78" shape="4670.85,3433.52 4494.31,3158.12"/>
    </edge>
    <edge id="edge_015" from="node_015" to="node_016" priority="1" length="326.84">
        <lane id="edge_015_0" index="0" speed="8.33" length="326.84" shape="4491.62,3159.85 4315.06,2884.57"/>
        <lane id="edge_015_1" index="1" speed="8.33" length="326.84" shape="4494.31,3158.12 4317.75,2882.84"/>
    </edge>
    <edge id="edge_016" from="node_016" to="node_017" priority="1" length="326.88">
        <lane id="edge_016_0" index="0" speed="8.33" length="326.88" shape="4314.90,2884.31 4138.52,2609.05"/>
        <lane id="edge_016_1" index="1" speed="8.33" length="326.88" shape="4317.59,2882.59 4141.21,2607.32"/>
    </edge>
    <edge id="edge_017" from="node_017" to="node_018" priority="1" length="326.84">
        <lane id="edge_017_0" index="0" speed="8.33" length="326.84" shape="4138.36,2608.79 3962.73,2334.96"/>
        <lane id="edge_017_1" index="1" speed="8.33" length="326.84" shape="4141.05,2607.07 3965.42,2333.24"/>
    </edge>
    <edge id="edge_018" from="node_018" to="node_019" priority="1" length="286.63">
        <lane id="edge_018_0" index="0" speed="8.33" length="286.63" shape="3962.11,2334.41 3709.45,2203.85"/>
        <lane id="edge_018_1" index="1" speed="8.33" length="286.63" shape="3963.58,2331.56 3710.92,2201.01"/>
    </edge>
    <edge id="edge_019" from="node_019" to="node_020" priority="1" length="296.46">
        <lane id="edge_019_0" index="0" speed="8.33" length="296.46" shape="3709.10,2203.72 3421.90,2132.91"/>
        <lane id="edge_019_1" index="1" speed="8.33" length="296.46" shape="3709.86,2200.61 3422.66,2129.80"/>
    </edge>
    <edge id="edge_020" from="node_020" to="node_021" priority="1" length="296.34">
        <lane id="edge_020_0" index="0" speed="8.33" length="296.34" shape="3421.61,2132.83 3133.76,2061.96"/>
        <lane id="edge_020_1" index="1" speed="8.33" length="296.34" shape="3422.37,2129.73 3134.53,2058.85"/>
    </edge>
    <edge id="edge_021" from="node_021" to="node_022" priority="1" length="297.39">
        <lane id="edge_021_0" index="0" speed="8.33" length="297.39" shape="3133.40,2061.86 2850.84,1968.35"/>
        <lane id="edge_021_1" index="1" speed="8.33" length="297.39" shape="3134.41,2058.82 2851.85,1965.31"/>
    </edge>
    <edge id="edge_022" from="node_022" to="node_023" priority="1" length="300.35">
        <lane id="edge_022_0" index="0" speed="8.33" length="300.35" shape="2850.47,1968.21 2573.95,1850.72"/>
        <lane id="edge_022_1" index="1" speed="8.33" length="300.35" shape="2851.72,1965.26 2575.20,1847.77"/>
    </edge>
    <edge id="edge_023" from="node_023" to="node_024" priority="1" length="300.31">
        <lane id="edge_023_0" index="0" speed="8.33" length="300.31" shape="2573.68,1850.60 2297.29,1733.28"/>
        <lane id="edge_023_1" index="1" speed="8.33" length="300.31" shape="2574.93,1847.65 2298.54,1730.33"/>
    </edge>
    <edge id="edge_024" from="node_024" to="node_025" priority="1" length="300.35">
        <lane id="edge_024_0" index="0" speed="8.33" length="300.35" shape="2297.02,1733.16 2020.49,1615.66"/>
        <lane id="edge_024_1" index="1" speed="8.33" length="300.35" shape="2298.27,1730.21 2021.74,1612.71"/>
    </edge>
    <edge id="edge_025" from="node_025" to="node_026" priority="1" length="288.24">
        <lane id="edge_025_0" index="0" speed="8.33" length="288.24" shape="2019.83,1615.31 1774.95,1462.81"/>
        <lane id="edge_025_1" index="1" speed="8.33" length="288.24" shape="2021.52,1612.60 1776.64,1460.10"/>
    </edge>
    <edge id="edge_026" from="node_026" to="node_027" priority="1" length="340.10">
        <lane id="edge_026_0" index="0" speed="8.33" length="340.10" shape="1772.84,1459.93 1688.43,1130.08"/>
        <lane id="edge_026_1" index="1" speed="8.33" length="340.10" shape="1775.94,1459.14 1691.53,1129.29"/>
    </edge>
    <edge id="edge_027" from="node_027" to="node_028" priority="1" length="340.10">
        <lane id="edge_027_0" index="0" speed="8.33" length="340.10" shape="1688.43,1130.08 1604.01,800.24"/>
        <lane id="edge_027_1" index="1" speed="8.33" length="340.10" shape="1691.53,1129.29 1607.11,799.45"/>
    </edge>
    <edge id="edge_028" from="node_028" to="node_029" priority="1" length="340.10">
        <lane id="edge_028_0" index="0" speed="8.33" length="340.10" shape="1604.01,800.24 1519.60,470.40"/>
        <lane id="edge_028_1" index="1" speed="8.33" length="340.10" shape="1607.11,799.45 1522.70,469.61"/>
    </edge>
    <edge id="edge_029" from="node_029" to="node_030" priority="1" length="340.10">
        <lane id="edge_029_0" index="0" speed="8.33" length="340.10" shape="1519.60,470.40 1436.14,144.30"/>
        <lane id="edge_029_1" index="1" speed="8.33" length="340.10" shape="1522.70,469.61 1439.24,143.51"/>
    </edge>
    <edge id="edge_030" from="node_030" to="node_031" priority="1" length="271.52">
        <lane id="edge_030_0" index="0" speed="8.33" length="271.52" shape="1434.96,143.14 1174.95,81.15"/>
        <lane id="edge_030_1" index="1" speed="8.33" length="271.52" shape="1435.70,140.03 1175.70,78.04"/>
    </edge>
    <edge id="edge_031" from="node_031" to="node_032" priority="1" length="294.33">
        <lane id="edge_031_0" index="0" speed="8.33" length="294.33" shape="1174.69,81.11 881.50,62.02"/>
        <lane id="edge_031_1" index="1" speed="8.33" length="294.33" shape="1174.90,77.92 881.71,58.83"/>
    </edge>
    <edge id="edge_032" from="node_032" to="node_033" priority="1" length="294.32">
        <lane id="edge_032_0" index="0" speed="8.33" length="294.32" shape="881.20,62.00 587.61,42.98"/>
        <lane id="edge_032_1" index="1" speed="8.33" length="294.32" shape="881.41,58.81 587.82,39.79"/>
    </edge>
    <edge id="edge_033" from="node_033" to="node_034" priority="1" length="294.33">
        <lane id="edge_033_0" index="0" speed="8.33" length="294.33" shape="587.31,42.96 293.72,23.83"/>
        <lane id="edge_033_1" index="1" speed="8.33" length="294.33" shape="587.52,39.77 293.93,20.64"/>
    </edge>
    <edge id="edge_034" from="node_034" to="node_035" priority="1" length="294.32">
        <lane id="edge_034_0" index="0" speed="8.33" length="294.32" shape="293.42,23.81 -0.31,4.79"/>
        <lane id="edge_034_1" index="1" speed="8.33" length="294.32" shape="293.63,20.62 -0.10,1.60"/>
    </edge>

    <junction id="node_001" type="dead_end" x="7342.68" y="5478.39" incLanes="" intLanes="" shape="7342.68,5478.39 7336.97,5481.27"/>
    <junction id="node_002" type="priority" x="7192.98" y="5181.94" incLanes="edge_001_0 edge_001_1" intLanes=":node_002_0_0 :node_002_0_1" shape="7187.27,5184.83 7192.98,5181.94 7187.27,5184.82">
        <request index="0" response="00" foes="00" cont="0"/>
        <request index="1" response="00" foes="00" cont="0"/>
    </junction>
    <junction id="node_003" type="priority" x="7043.27" y="4885.50" incLanes="edge_002_0 edge_002_1" intLanes=":node_003_0_0 :node_003_0_1" shape="7037.63,4888.52 7043.34,4885.63 7043.20,4885.37 7037.49,4888.25">
        <request index="0" response="00" foes="00" cont="0"/>
        <request index="1" response="00" foes="00" cont="0"/>
    </junction>
    <junction id="node_004" type="priority" x="6893.48" y="4589.17" incLanes="edge_003_0 edge_003_1" intLanes=":node_004_0_0 :node_004_0_1" shape="6887.84,4592.19 6893.55,4589.30 6893.41,4589.04 6887.70,4591.92">
        <request index="0" response="00" foes="00" cont="0"/>
        <request index="1" response="00" foes="00" cont="0"/>
    </junction>
    <junction id="node_005" type="priority" x="6743.77" y="4292.72" incLanes="edge_004_0 edge_004_1" intLanes=":node_005_0_0 :node_005_0_1" shape="6738.06,4295.61 6743.77,4292.72 6738.06,4295.60">
        <request index="0" response="00" foes="00" cont="0"/>
        <request index="1" response="00" foes="00" cont="0"/>
    </junction>
    <junction id="node_006" type="priority" x="6594.07" y="3996.28" incLanes="edge_005_0 edge_005_1" intLanes=":node_006_0_0 :node_006_0_1" shape="6589.36,4001.14 6595.07,3998.26 6594.29,3996.87 6593.92,3996.43 6593.47,3996.08 6592.88,3995.74 6592.06,3995.34">
        <request index="0" response="00" foes="00" cont="0"/>
        <request index="1" response="00" foes="00" cont="0"/>
    </junction>
    <junction id="node_007" type="priority" x="6372.70" y="3893.08" incLanes="edge_006_0 edge_006_1" intLanes=":node_007_0_0 :node_007_0_1" shape="6372.08,3899.85 6374.79,3894.05 6373.26,3893.42 6372.68,3893.31 6372.09,3893.32 6371.38,3893.44 6370.47,3893.66">
        <request index="0" response="00" foes="00" cont="0"/>
        <request index="1" response="00" foes="00" cont="0"/>
    </junction>
    <junction id="node_008" type="priority" x="6085.38" y="3967.78" incLanes="edge_007_0 edge_007_1" intLanes=":node_008_0_0 :node_008_0_1" shape="6087.13,3973.94 6085.52,3967.74 6085.24,3967.82 6086.84,3974.01">
        <request index="0" response="00" foes="00" cont="0"/>
        <request index="1" response="00" foes="00" cont="0"/>
    </junction>
    <junction id="node_009" type="priority" x="5797.97" y="4042.36" incLanes="edge_008_0 edge_008_1" intLanes=":node_009_0_0 :node_009_0_1" shape="5799.72,4048.52 5798.12,4042.32 5797.82,4042.40 5799.43,4048.59">
        <request index="0" response="00" foes="00" cont="0"/>
        <request index="1" response="00" foes="00" cont="0"/>
    </junction>
    <junction id="node_010" type="priority" x="5510.65" y="4117.06" incLanes="edge_009_0 edge_009_1" intLanes=":node_010_0_0 :node_010_0_1" shape="5512.40,4123.22 5510.79,4117.02 5510.51,4117.10 5512.11,4123.29">
        <request index="0" response="00" foes="00" cont="0"/>
        <request index="1" response="00" foes="00" cont="0"/>
    </junction>
    <junction id="node_011" type="priority" x="5223.33" y="4191.64" incLanes="edge_010_0 edge_010_1" intLanes=":node_011_0_0" shape="5227.22,4197.24 5225.61,4191.05 5224.16,4191.19 5223.49,4191.07 5222.86,4190.82 5222.27,4190.44 5221.71,4189.93 5219.39,4192.14 5221.12,4193.87 5222.68,4195.25 5224.07,4196.28 5225.29,4196.95 5226.34,4197.27">
        <request index="0" response="0" foes="0" cont="0"/>
    </junction>
    <junction id="node_012" type="priority" x="5025.38" y="3983.59" incLanes="edge_011_0" intLanes=":node_012_0_0" shape="5023.06,3985.80 5025.38,3983.59 5022.69,3985.32 5022.81,3985.51 5022.86,3985.57 5022.91,3985.63">
        <request index="0" response="0" foes="0" cont="0"/>
    </junction>
    <junction id="node_013" type="priority" x="4848.83" y="3708.07" incLanes="edge_012_0" intLanes=":node_013_0_0 :node_013_0_1" shape="4848.29,3713.16 4850.99,3711.44 4846.67,3704.70 4841.28,3708.16 4843.62,3710.26 4845.96,3711.06 4847.13,3711.79">
        <request index="0" response="00" foes="00" cont="0"/>
        <request index="1" response="00" foes="00" cont="0"/>
    </junction>
    <junction id="node_014" type="priority" x="4672.20" y="3432.66" incLanes="edge_013_0 edge_013_1" intLanes=":node_014_0_0 :node_014_0_1" shape="4666.81,3436.12 4672.20,3432.66 4666.81,3436.11">
        <request index="0" response="00" foes="00" cont="0"/>
        <request index="1" response="00" foes="00" cont="0"/>
    </junction>
    <junction id="node_015" type="priority" x="4495.66" y="3157.26" incLanes="edge_014_0 edge_014_1" intLanes=":node_015_0_0 :node_015_0_1" shape="4490.27,3160.72 4495.66,3157.26 4490.27,3160.71">
        <request index="0" response="00" foes="00" cont="0"/>
        <request index="1" response="00" foes="00" cont="0"/>
    </junction>
    <junction id="node_016" type="priority" x="4319.02" y="2881.85" incLanes="edge_015_0 edge_015_1" intLanes=":node_016_0_0 :node_016_0_1" shape="4313.71,2885.43 4319.10,2881.98 4318.94,2881.72 4313.55,2885.18">
        <request index="0" response="00" foes="00" cont="0"/>
        <request index="1" response="00" foes="00" cont="0"/>
    </junction>
    <junction id="node_017" type="priority" x="4142.48" y="2606.33" incLanes="edge_016_0 edge_016_1" intLanes=":node_017_0_0 :node_017_0_1" shape="4137.17,2609.91 4142.56,2606.46 4142.40,2606.20 4137.01,2609.66">
        <request index="0" response="00" foes="00" cont="0"/>
        <request index="1" response="00" foes="00" cont="0"/>
    </junction>
    <junction id="node_018" type="priority" x="3965.84" y="2330.93" incLanes="edge_017_0 edge_017_1" intLanes=":node_018_0_0 :node_018_0_1" shape="3961.38,2335.83 3966.77,2332.37 3966.06,2331.34 3965.76,2331.02 3965.41,2330.75 3964.95,2330.48 3964.32,2330.14">
        <request index="0" response="00" foes="00" cont="0"/>
        <request index="1" response="00" foes="00" cont="0"/>
    </junction>
    <junction id="node_019" type="priority" x="3710.98" y="2199.24" incLanes="edge_018_0 edge_018_1" intLanes=":node_019_0_0 :node_019_0_1" shape="3708.71,2205.27 3711.65,2199.59 3711.15,2199.34 3710.97,2199.26 3710.79,2199.20 3710.56,2199.14 3710.25,2199.06">
        <request index="0" response="00" foes="00" cont="0"/>
        <request index="1" response="00" foes="00" cont="0"/>
    </junction>
    <junction id="node_020" type="priority" x="3422.90" y="2128.21" incLanes="edge_019_0 edge_019_1" intLanes=":node_020_0_0 :node_020_0_1" shape="3421.51,2134.46 3423.05,2128.25 3422.75,2128.17 3421.22,2134.39">
        <request index="0" response="00" foes="00" cont="0"/>
        <request index="1" response="00" foes="00" cont="0"/>
    </junction>
    <junction id="node_021" type="priority" x="3134.91" y="2057.30" incLanes="edge_020_0 edge_020_1" intLanes=":node_021_0_0 :node_021_0_1" shape="3133.38,2063.51 3134.91,2057.30 3132.90,2063.38">
        <request index="0" response="00" foes="00" cont="0"/>
        <request index="1" response="00" foes="00" cont="0"/>
    </junction>
    <junction id="node_022" type="priority" x="2852.35" y="1963.79" incLanes="edge_021_0 edge_021_1" intLanes=":node_022_0_0 :node_022_0_1" shape="2850.34,1969.87 2852.35,1963.79 2849.85,1969.68">
        <request index="0" response="00" foes="00" cont="0"/>
        <request index="1" response="00" foes="00" cont="0"/>
    </junction>
    <junction id="node_023" type="priority" x="2575.69" y="1846.24" incLanes="edge_022_0 edge_022_1" intLanes=":node_023_0_0 :node_023_0_1" shape="2573.33,1852.19 2575.83,1846.30 2575.55,1846.18 2573.05,1852.07">
        <request index="0" response="00" foes="00" cont="0"/>
        <request index="1" response="00" foes="00" cont="0"/>
    </junction>
    <junction id="node_024" type="priority" x="2299.03" y="1728.80" incLanes="edge_023_0 edge_023_1" intLanes=":node_024_0_0 :node_024_0_1" shape="2296.67,1734.75 2299.17,1728.86 2298.89,1728.74 2296.39,1734.63">
        <request index="0" response="00" foes="00" cont="0"/>