<?xml version='1.0' encoding='utf-8'?>
<routes>
  <vType id="passenger" vClass="passenger" accel="2.6" decel="4.5" sigma="0.5" length="5.0" minGap="2.5" maxSpeed="22.22" />
  <route id="corridor_route" edges="edge_001 edge_002 edge_003 edge_004 edge_005 edge_006 edge_007 edge_008 edge_009 edge_010 edge_011 edge_012 edge_013 edge_014 edge_015 edge_016 edge_017 edge_018 edge_019 edge_020 edge_021 edge_022 edge_023 edge_024 edge_025 edge_026 edge_027 edge_028 edge_029 edge_030 edge_031 edge_032 edge_033 edge_034" />
  <vehicle id="detour-mitigation_veh_0000" type="passenger" route="corridor_route" depart="0.00" departLane="best" departSpeed="max" />
  <vehicle id="detour-mitigation_veh_0001" type="passenger" route="corridor_route" depart="9.18" departLane="best" departSpeed="max" />
  <vehicle id="detour-mitigation_veh_0002" type="passenger" route="corridor_route" depart="18.37" departLane="best" departSpeed="max" />
  <vehicle id="detour-mitigation_veh_0003" type="passenger" route="corridor_route" depart="27.55" departLane="best" departSpeed="max" />
  <vehicle id="detour-mitigation_veh_0004" type="passenger" route="corridor_route" depart="36.73" departLane="best" departSpeed="max" />
  <vehicle id="detour-mitigation_veh_0005" type="passenger" route="corridor_route" depart="45.92" departLane="best" departSpeed="max" />
  <vehicle id="detour-mitigation_veh_0006" type="passenger" route="corridor_route" depart="55.10" departLane="best" departSpeed="max" />
  <vehicle id="detour-mitigation_veh_0007" type="passenger" route="corridor_route" depart="64.29" departLane="best" departSpeed="max" />
  <vehicle id="detour-mitigation_veh_0008" type="passenger" route="corridor_route" depart="73.47" departLane="best" departSpeed="max" />
  <vehicle id="detour-mitigation_veh_0009" type="passenger" route="corridor_route" depart="82.65" departLane="best" departSpeed="max" />
  <vehicle id="detour-mitigation_veh_0010" type="passenger" route="corridor_route" depart="91.84" departLane="best" departSpeed="max" />
  <vehicle id="detour-mitigation_veh_0011" type="passenger" route="corridor_route" depart="101.02" departLane="best" departSpeed="max" />
  <vehicle id="detour-mitigation_veh_0012" type="passenger" route="corridor_route" depart="110.20" departLane="best" departSpeed="max" />
  <vehicle id="detour-mitigation_veh_0013" type="passenger" route="corridor_route" depart="119.39" departLane="best" departSpeed="max" />
  <vehicle id="detour-mitigation_veh_0014" type="passenger" route="corridor_route" depart="128.57" departLane="best" departSpeed="max" />
  <vehicle id="detour-mitigation_veh_0015" type="passenger" route="corridor_route" depart="137.76" departLane="best" departSpeed="max" />
  <vehicle id="detour-mitigation_veh_0016" type="passenger" route="corridor_route" depart="146.94" departLane="best" departSpeed="max" />
  <vehicle id="detour-mitigation_veh_0017" type="passenger" route="corridor_route" depart="156.12" departLane="best" departSpeed="max" />
  <vehicle id="detour-mitigation_veh_0018" type="passenger" route="corridor_route" depart="165.31" departLane="best" departSpeed="max" />
  <vehicle id="detour-mitigation_veh_0019" type="passenger" route="corridor_route" depart="174.49" departLane="best" departSpeed="max" />
  <vehicle id="detour-mitigation_veh_0020" type="passenger" route="corridor_route" depart="183.67" departLane="best" departSpeed="max" />
  <vehicle id="detour-mitigation_veh_0021" type="passenger" route="corridor_route" depart="192.86" departLane="best" departSpeed="max" />
  <vehicle id="detour-mitigation_veh_0022" type="passenger" route="corridor_route" depart="202.04" departLane="best" departSpeed="max" />
  <vehicle id="detour-mitigation_veh_0023" type="passenger" route="corridor_route" depart="211.22" departLane="best" departSpeed="max" />
  <vehicle id="detour-mitigation_veh_0024" type="passenger" route="corridor_route" depart="220.41" departLane="best" departSpeed="max" />
  <vehicle id="detour-mitigation_veh_0025" type="passenger" route="corridor_route" depart="229.59" departLane="best" departSpeed="max" />
  <vehicle id="detour-mitigation_veh_0026" type="passenger" route="corridor_route" depart="238.78" departLane="best" departSpeed="max" />
  <vehicle id="detour-mitigation_veh_0027" type="passenger" route="corridor_route" depart="247.96" departLane="best" departSpeed="max" />
  <vehicle id="detour-mitigation_veh_0028" type="passenger" route="corridor_route" depart="257.14" departLane="best" departSpeed="max" />
  <vehicle id="detour-mitigation_veh_0029" type="passenger" route="corridor_route" depart="266.33" departLane="best" departSpeed="max" />
  <vehicle id="detour-mitigation_veh_0030" type="passenger" route="corridor_route" depart="275.51" departLane="best" departSpeed="max" />
  <vehicle id="detour-mitigation_veh_0031" type="passenger" route="corridor_route" depart="284.69" departLane="best" departSpeed="max" />
  <vehicle id="detour-mitigation_veh_0032" type="passenger" route="corridor_route" depart="293.88" departLane="best" departSpeed="max" />
  <vehicle id="detour-mitigation_veh_0033" type="passenger" route="corridor_route" depart="303.06" departLane="best" departSpeed="max" />
  <vehicle id="detour-mitigation_veh_0034" type="passenger" route="corridor_route" depart="312.24" departLane="best" departSpeed="max" />
  <vehicle id="detour-mitigation_veh_0035" type="passenger" route="corridor_route" depart="321.43" departLane="best" departSpeed="max" />
  <vehicle id="detour-mitigation_veh_0036" type="passenger" route="corridor_route" depart="330.61" departLane="best" departSpeed="max" />
  <vehicle id="detour-mitigation_veh_0037" type="passenger" route="corridor_route" depart="339.80" departLane="best" departSpeed="max" />
  <vehicle id="detour-mitigation_veh_0038" type="passenger" route="corridor_route" depart="348.98" departLane="best" departSpeed="max" />
  <vehicle id="detour-mitigation_veh_0039" type="passenger" route="corridor_route" depart="358.16" departLane="best" departSpeed="max" />
  <vehicle id="detour-mitigation_veh_0040" type="passenger" route="corridor_route" depart="367.35" departLane="best" departSpeed="max" />
  <vehicle id="detour-mitigation_veh_0041" type="passenger" route="corridor_route" depart="376.53" departLane="best" departSpeed="max" />
  <vehicle id="detour-mitigation_veh_0042" type="passenger" route="corridor_route" depart="385.71" departLane="best" departSpeed="max" />
  <vehicle id="detour-mitigation_veh_0043" type="passenger" route="corridor_route" depart="394.90" departLane="best" departSpeed="max" />
  <vehicle id="detour-mitigation_veh_0044" type="passenger" route="corridor_route" depart="404.08" departLane="best" departSpeed="max" />
  <vehicle id="detour-mitigation_veh_0045" type="passenger" route="corridor_route" depart="413.27" departLane="best" departSpeed="max" />
  <vehicle id="detour-mitigation_veh_0046" type="passenger" route="corridor_route" depart="422.45" departLane="best" departSpeed="max" />
  <vehicle id="detour-mitigation_veh_0047" type="passenger" route="corridor_route" depart="431.63" departLane="best" departSpeed="max" />
  <vehicle id="detour-mitigation_veh_0048" type="passenger" route="corridor_route" depart="440.82" departLane="best" departSpeed="max" />
  <vehicle id="detour-mitigation_veh_0049" type="passenger" route="corridor_route" depart="450.00" departLane="best" departSpeed="max" />
  <vehicle id="detour-mitigation_veh_0050" type="passenger" route="corridor_route" depart="459.18" departLane="best" departSpeed="max" />
  <vehicle id="detour-mitigation_veh_0051" type="passenger" route="corridor_route" depart="468.37" departLane="best" departSpeed="max" />
  <vehicle id="detour-mitigation_veh_0052" type="passenger" route="corridor_route" depart="477.55" departLane="best" departSpeed="max" />
  <vehicle id="detour-mitigation_veh_0053" type="passenger" route="corridor_route" depart="486.73" departLane="best" departSpeed="max" />
  <vehicle id="detour-mitigation_veh_0054" type="passenger" route="corridor_route" depart="495.92" departLane="best" departSpeed="max" />
  <vehicle id="detour-mitigation_veh_0055" type="passenger" route="corridor_route" depart="505.10" departLane="best" departSpeed="max" />
  <vehicle id="detour-mitigation_veh_0056" type="passenger" route="corridor_route" depart="514.29" departLane="best" departSpeed="max" />
  <vehicle id="detour-mitigation_veh_0057" type="passenger" route="corridor_route" depart="523.47" departLane="best" departSpeed="max" />
  <vehicle id="detour-mitigation_veh_0058" type="passenger" route="corridor_route" depart="532.65" departLane="best" departSpeed="max" />
  <vehicle id="detour-mitigation_veh_0059" type="passenger" route="corridor_route" depart="541.84" departLane="best" departSpeed="max" />
  <vehicle id="detour-mitigation_veh_0060" type="passenger" route="corridor_route" depart="551.02" departLane="best" departSpeed="max" />
  <vehicle id="detour-mitigation_veh_0061" type="passenger" route="corridor_route" depart="560.20" departLane="best" departSpeed="max" />
  <vehicle id="detour-mitigation_veh_0062" type="passenger" route="corridor_route" depart="569.39" departLane="best" departSpeed="max" />
  <vehicle id="detour-mitigation_veh_0063" type="passenger" route="corridor_route" depart="578.57" departLane="best" departSpeed="max" />
  <vehicle id="detour-mitigation_veh_0064" type="passenger" route="corridor_route" depart="587.76" departLane="best" departSpeed="max" />
  <vehicle id="detour-mitigation_veh_0065" type="passenger" route="corridor_route" depart="596.94" departLane="best" departSpeed="max" />
  <vehicle id="detour-mitigation_veh_0066" type="passenger" route="corridor_route" depart="606.12" departLane="best" departSpeed="max" />
  <vehicle id="detour-mitigation_veh_0067" type="passenger" route="corridor_route" depart="615.31" departLane="best" departSpeed="max" />
  <vehicle id="detour-mitigation_veh_0068" type="passenger" route="corridor_route" depart="624.49" departLane="best" departSpeed="max" />
  <vehicle id="detour-mitigation_veh_0069" type="passenger" route="corridor_route" depart="633.67" departLane="best" departSpeed="max" />
  <vehicle id="detour-mitigation_veh_0070" type="passenger" route="corridor_route" depart="642.86" departLane="best" departSpeed="max" />
  <vehicle id="detour-mitigation_veh_0071" type="passenger" route="corridor_route" depart="652.04" departLane="best" departSpeed="max" />
  <vehicle id="detour-mitigation_veh_0072" type="passenger" route="corridor_route" depart="661.22" departLane="best" departSpeed="max" />
  <vehicle id="detour-mitigation_veh_0073" type="passenger" route="corridor_route" depart="670.41" departLane="best" departSpeed="max" />
  <vehicle id="detour-mitigation_veh_0074" type="passenger" route="corridor_route" depart="679.59" departLane="best" departSpeed="max" />
  <vehicle id="detour-mitigation_veh_0075" type="passenger" route="corridor_route" depart="688.78" departLane="best" departSpeed="max" />
  <vehicle id="detour-mitigation_veh_0076" type="passenger" route="corridor_route" depart="697.96" departLane="best" departSpeed="max" />
  <vehicle id="detour-mitigation_veh_0077" type="passenger" route="corridor_route" depart="707.14" departLane="best" departSpeed="max" />
  <vehicle id="detour-mitigation_veh_0078" type="passenger" route="corridor_route" depart="716.33" departLane="best" departSpeed="max" />
  <vehicle id="detour-mitigation_veh_0079" type="passenger" route="corridor_route" depart="725.51" departLane="best" departSpeed="max" />
  <vehicle id="detour-mitigation_veh_0080" type="passenger" route="corridor_route" depart="734.69" departLane="best" departSpeed="max" />
  <vehicle id="detour-mitigation_veh_0081" type="passenger" route="corridor_route" depart="743.88" departLane="best" departSpeed="max" />
  <vehicle id="detour-mitigation_veh_0082" type="passenger" route="corridor_route" depart="753.06" departLane="best" departSpeed="max" />
  <vehicle id="detour-mitigation_veh_0083" type="passenger" route="corridor_route" depart="762.24" departLane="best" departSpeed="max" />
  <vehicle id="detour-mitigation_veh_0084" type="passenger" route="corridor_route" depart="771.43" departLane="best" departSpeed="max" />
  <vehicle id="detour-mitigation_veh_0085" type="passenger" route="corridor_route" depart="780.61" departLane="best" departSpeed="max" />
  <vehicle id="detour-mitigation_veh_0086" type="passenger" route="corridor_route" depart="789.80" departLane="best" departSpeed="max" />
  <vehicle id="detour-mitigation_veh_0087" type="passenger" route="corridor_route" depart="798.98" departLane="best" departSpeed="max" />
  <vehicle id="detour-mitigation_veh_0088" type="passenger" route="corridor_route" depart="808.16" departLane="best" departSpeed="max" />
  <vehicle id="detour-mitigation_veh_0089" type="passenger" route="corridor_route" depart="817.35" departLane="best" departSpeed="max" />
  <vehicle id="detour-mitigation_veh_0090" type="passenger" route="corridor_route" depart="826.53" departLane="best" departSpeed="max" />
  <vehicle id="detour-mitigation_veh_0091" type="passenger" route="corridor_route" depart="835.71" departLane="best" departSpeed="max" />
  <vehicle id="detour-mitigation_veh_0092" type="passenger" route="corridor_route" depart="844.90" departLane="best" departSpeed="max" />
  <vehicle id="detour-mitigation_veh_0093" type="passenger" route="corridor_route" depart="854.08" departLane="best" departSpeed="max" />
  <vehicle id="detour-mitigation_veh_0094" type="passenger" route="corridor_route" depart="863.27" departLane="best" departSpeed="max" />
  <vehicle id="detour-mitigation_veh_0095" type="passenger" route="corridor_route" depart="872.45" departLane="best" departSpeed="max" />
  <vehicle id="detour-mitigation_veh_0096" type="passenger" route="corridor_route" depart="881.63" departLane="best" departSpeed="max" />
  <vehicle id="detour-mitigation_veh_0097" type="passenger" route="corridor_route" depart="890.82" departLane="best" departSpeed="max" />
</routes>